data_image0
_chemical_formula_structural       I4InI2SbI4SbI2InI2Cs2N2C6H16N2C6H16
_chemical_formula_sum              "I14 In2 Sb2 Cs2 N4 C12 H32"
_cell_length_a       8.45332
_cell_length_b       9.02703
_cell_length_c       16.6476
_cell_angle_alpha    90
_cell_angle_beta     90
_cell_angle_gamma    90

_space_group_name_H-M_alt    "P 1"
_space_group_IT_number       1

loop_
  _space_group_symop_operation_xyz
  'x, y, z'

loop_
  _atom_site_type_symbol
  _atom_site_label
  _atom_site_symmetry_multiplicity
  _atom_site_fract_x
  _atom_site_fract_y
  _atom_site_fract_z
  _atom_site_occupancy
  I   I1        1.0  0.28190  0.28438  0.96345  1.0000
  I   I2        1.0  0.78061  0.78236  0.97651  1.0000
  I   I3        1.0  0.03740  0.99909  0.16496  1.0000
  I   I4        1.0  0.53965  0.01084  0.16461  1.0000
  In  In1       1.0  0.28126  0.26684  0.15283  1.0000
  I   I5        1.0  0.02825  0.51984  0.16510  1.0000
  I   I6        1.0  0.53781  0.51969  0.16453  1.0000
  Sb  Sb1       1.0  0.78281  0.76742  0.16416  1.0000
  I   I7        1.0  0.28214  0.24248  0.35313  1.0000
  I   I8        1.0  0.77728  0.76777  0.34322  1.0000
  I   I9        1.0  0.96653  0.06577  0.53369  1.0000
  I   I10       1.0  0.44715  0.95917  0.54275  1.0000
  Sb  Sb2       1.0  0.26332  0.26073  0.53021  1.0000
  I   I11       1.0  0.05355  0.52539  0.51573  1.0000
  I   I12       1.0  0.55497  0.45444  0.53200  1.0000
  In  In2       1.0  0.76311  0.76045  0.54004  1.0000
  I   I13       1.0  0.27215  0.29488  0.71903  1.0000
  I   I14       1.0  0.79847  0.78770  0.73169  1.0000
  Cs  Cs1       1.0  0.28543  0.75431  0.33571  1.0000
  Cs  Cs2       1.0  0.78383  0.26471  0.33385  1.0000
  N   N1        1.0  0.17021  0.64396  0.94474  1.0000
  N   N2        1.0  0.21040  0.71593  0.67990  1.0000
  C   C1        1.0  0.23796  0.79932  0.82522  1.0000
  C   C2        1.0  0.34704  0.89173  0.87929  1.0000
  C   C3        1.0  0.21934  0.64255  0.85831  1.0000
  C   C4        1.0  0.29296  0.88777  0.96669  1.0000
  C   C5        1.0  0.28008  0.73079  0.99771  1.0000
  C   C6        1.0  0.30680  0.79994  0.74055  1.0000
  H   H1        1.0  0.11991  0.85183  0.82335  1.0000
  H   H2        1.0  0.34835  0.00686  0.85744  1.0000
  H   H3        1.0  0.46874  0.84787  0.87485  1.0000
  H   H4        1.0  0.12985  0.57795  0.82565  1.0000
  H   H5        1.0  0.33119  0.58034  0.85560  1.0000
  H   H6        1.0  0.37575  0.94765  0.00580  1.0000
  H   H7        1.0  0.17823  0.94425  0.97339  1.0000
  H   H8        1.0  0.39440  0.67256  0.99724  1.0000
  H   H9        1.0  0.23148  0.72575  0.05879  1.0000
  H   H10       1.0  0.42706  0.75333  0.73906  1.0000
  H   H11       1.0  0.31385  0.91437  0.71832  1.0000
  H   H12       1.0  0.17054  0.53335  0.96417  1.0000
  H   H13       1.0  0.24596  0.74553  0.62240  1.0000
  H   H14       1.0  0.08950  0.74006  0.68513  1.0000
  H   H15       1.0  0.05505  0.68555  0.95077  1.0000
  H   H16       1.0  0.22379  0.60164  0.68455  1.0000
  N   N3        1.0  0.67277  0.14307  0.94913  1.0000
  N   N4        1.0  0.68447  0.17967  0.68514  1.0000
  C   C7        1.0  0.72606  0.28728  0.82395  1.0000
  C   C8        1.0  0.83769  0.38748  0.87255  1.0000
  C   C9        1.0  0.71752  0.13361  0.86231  1.0000
  C   C10       1.0  0.79255  0.38992  0.96145  1.0000
  C   C11       1.0  0.78488  0.23616  0.99741  1.0000
  C   C12       1.0  0.78321  0.27971  0.73690  1.0000
  H   H17       1.0  0.60591  0.33579  0.82451  1.0000
  H   H18       1.0  0.83385  0.50058  0.84783  1.0000
  H   H19       1.0  0.96006  0.34636  0.86580  1.0000
  H   H20       1.0  0.62987  0.06119  0.83351  1.0000
  H   H21       1.0  0.83228  0.07617  0.85977  1.0000
  H   H22       1.0  0.87816  0.45394  0.99685  1.0000
  H   H23       1.0  0.67777  0.44564  0.96977  1.0000
  H   H24       1.0  0.90007  0.17938  0.99645  1.0000
  H   H25       1.0  0.74081  0.23709  0.05944  1.0000
  H   H26       1.0  0.90579  0.23953  0.73274  1.0000
  H   H27       1.0  0.77831  0.39037  0.70946  1.0000
  H   H28       1.0  0.67412  0.03495  0.97200  1.0000
  H   H29       1.0  0.71819  0.18953  0.62542  1.0000
  H   H30       1.0  0.56431  0.20598  0.68896  1.0000
  H   H31       1.0  0.55739  0.18481  0.95500  1.0000
  H   H32       1.0  0.70049  0.06799  0.69940  1.0000
