# CIF file generated by openbabel 3.1.1, see https://openbabel.org
data_I
_chemical_name_common '?'
_cell_length_a 8.5868
_cell_length_b 9.2984
_cell_length_c 32.867
_cell_angle_alpha 90
_cell_angle_beta 90
_cell_angle_gamma 90
_space_group_name_H-M_alt 'P b c n'
_space_group_name_Hall '-P 2n 2ab'
loop_
    _symmetry_equiv_pos_as_xyz
    x,y,z
    1/2-x,1/2-y,1/2+z
    -x,y,1/2-z
    1/2+x,1/2-y,-z
    -x,-y,-z
    1/2+x,1/2+y,1/2-z
    x,-y,1/2+z
    1/2-x,1/2+y,z
loop_
    _atom_site_label
    _atom_site_type_symbol
    _atom_site_fract_x
    _atom_site_fract_y
    _atom_site_fract_z
    _atom_site_occupancy
    Pb1      Pb       0.00000    0.89625    0.25000    1.000
    I2       I        0.03715    0.89522    0.34719    1.000
    I1       I        0.23329    0.17216    0.24220    1.000
    Cl1      Cl       0.34130    0.56690    0.47485    1.000
    C3       C        0.98840    0.41040    0.41030    1.000
    C4       C        0.13220    0.43100    0.42810    1.000
    H4       H        0.21360    0.36820    0.42240    1.000
    N1       N        0.04630    0.30990    0.34130    1.000
    H1A      H        0.14910    0.31320    0.34660    1.000
    H1B      H        0.02880    0.23320    0.32520    1.000
    C2       C        0.95720    0.29090    0.38120    1.000
    H2A      H        0.84650    0.28680    0.37540    1.000
    H2B      H        0.98710    0.20030    0.39360    1.000
    C8       C        0.86800    0.50390    0.41950    1.000
    H8       H        0.76940    0.49020    0.40840    1.000
    C5       C        0.15510    0.54230    0.45380    1.000
    C1       C        0.00200    0.43920    0.31960    1.000
    H1C      H        0.89100    0.44100    0.31620    1.000
    H1D      H        0.05150    0.44030    0.29340    1.000
    H1E      H        0.03410    0.52200    0.33490    1.000
    C7       C        0.89800    0.61970    0.44570    1.000
    H7       H        0.81850    0.68470    0.45150    1.000
    C6       C        0.04090    0.63850    0.46270    1.000
    H6       H        0.06010    0.71570    0.48000    1.000
